450
mol output final
   C   -73.045251    64.716294    24.059704
   C   -71.339509    64.125144    25.332079
   C   -71.948111    64.341331    25.669886
   C     3.829230    40.066918    14.090221
   C     5.675234    40.966120    13.276797
   C     5.241852    40.613674    12.808599
   C    -9.062036   -83.026789    98.126893
   C   -10.149156   -81.510101    96.945462
   C    -9.638181   -81.898356    96.599905
   C   -86.459019   -17.006693   -57.127755
   C   -86.185068   -18.732688   -58.478253
   C   -85.993088   -18.821493   -57.780754
   C    82.247721     5.176065    16.277515
   C    83.995900     4.786323    17.569770
   C    84.112229     5.161902    16.956049
   C    32.289261   -70.849381    80.850562
   C    33.211998   -70.411775    78.892244
   C    32.977816   -69.843964    79.284667
   C   -24.934987    69.949447   -87.999045
   C   -25.670322    68.309019   -86.715990
   C   -24.960698    68.470613   -86.676401
   C   -43.930974   -84.395088   -39.700781
   C   -46.076510   -84.910579   -39.795110
   C   -45.611468   -85.355603   -40.137070
   C   -91.523821    78.439033   -30.066514
   C   -90.573467    79.417851   -28.329650
   C   -90.617387    78.690380   -28.319459
   C    55.690073    11.046400    99.508038
   C    57.228609    10.037253    98.286366
   C    56.773355     9.613092    98.665941
   C    92.727696   -22.511275    15.798289
   C    91.928333   -20.509187    15.318065
   C    92.652026   -20.593114    15.296362
   C    34.741338   -94.462615    53.361956
   C    36.294603   -96.031093    53.289874
   C    36.232054   -95.596974    52.707744
   C   -38.132075    42.664978    82.392500
   C   -36.022779    42.787950    83.035696
   C   -36.468493    43.323109    83.250613
   C   -46.306485    34.818515    43.929666
   C   -45.596806    32.977486    44.922097
   C   -46.309827    33.123510    44.961143
   C    66.917383   -81.882485   -96.154296
   C    67.658956   -81.270216   -94.166043
   C    67.859952   -80.863474   -94.736489
   C   -73.432210   -28.568052   -44.862929
   C   -73.432044   -29.695258   -42.963624
   C   -73.855440   -29.103075   -42.999699
   C     6.535692    92.591297   -98.509972
   C     4.673111    93.765914   -98.339627
   C     5.249451    94.096582   -98.639189
   C    70.248866   -74.777393    35.228441
   C    68.856814   -75.161896    33.557423
   C    68.622561   -74.726382    34.092866
   C   -69.874231    38.917636    21.688446
   C   -70.571436    36.823094    21.757396
   C   -69.876327    36.936985    21.570049
   C     9.389873   -82.578108    43.470583
   C    11.277438   -83.716649    43.333574
   C    11.265917   -83.052986    43.032468
   C    40.316129   -47.643755     9.500805
   C    39.714468   -45.927920     8.247063
   C    39.194121   -46.250229     8.642793
   C   -41.089564   -57.224102   -62.484012
   C   -42.885369   -57.728362   -63.666704
   C   -42.912540   -57.123487   -63.260952
   C    -4.106374    19.702347   -98.390980
   C    -4.829783    20.465616   -96.448803
   C    -4.519824    20.945838   -96.901086
   C   -70.264716   -26.025984    46.135685
   C   -70.078997   -23.982353    45.318964
   C   -70.390904   -24.484570    44.892656
   C   -76.905026    -2.339157   -65.681998
   C   -76.795383    -0.282299   -66.479034
   C   -76.526234    -0.395755   -65.811251
   C    95.680003   -96.536614   -18.768594
   C    94.836212   -96.590331   -16.728230
   C    94.475368   -96.952446   -17.247759
   C   -29.679792   -29.428996    85.647481
   C   -30.346163   -29.517119    83.543642
   C   -30.790809   -29.191662    84.020732
   C     3.894173   -68.103935    90.651304
   C     5.148264   -68.395986    88.856892
   C     4.897982   -67.723093    88.982674
   C     0.822163    -2.967144    58.722424
   C    -0.300210    -2.251226    60.484722
   C    -0.125257    -1.757511    59.977885
   C   -94.180781     1.049167    63.972819
   C   -93.087783     2.141809    62.395022
   C   -92.874977     2.249744    63.083724
   C    19.426469     0.487431    92.024756
   C    20.152483    -1.593034    91.874693
   C    20.309025    -1.228703    92.486251
   C     2.360206    -4.320798   -30.160551
   C     2.935878    -3.974060   -28.056667
   C     3.450584    -3.876585   -28.563444
   C   -61.438152    62.574580   -25.479298
   C   -62.148576    63.425428   -27.389614
   C   -61.725054    62.833323   -27.425509
   C    79.709770    61.792592   -92.805617
   C    78.144625    60.237407   -92.903976
   C    78.264549    60.549059   -92.256105
   C   -53.110074   -53.100035   -23.821325
   C   -52.353407   -52.129170   -25.655127
   C   -53.029139   -51.958218   -25.442035
   C   -59.825786   -56.844919   -76.819527
   C   -60.272141   -58.688557   -75.688280
   C   -60.396606   -58.699765   -76.406354
   C    18.091651    64.646192   -93.613737
   C    18.861723    66.688439   -93.275849
   C    19.131699    66.156840   -92.856609
   C    66.404218   -32.213168    35.907629
   C    67.005048   -31.635173    37.952837
   C    66.768228   -32.317565    37.855344
   C   -34.973089    -7.077531    69.859814
   C   -37.042966    -7.041981    69.090205
   C   -36.693646    -6.403963    69.136635
   C    63.721748   -47.729680   -54.108557
   C    63.741412   -48.188249   -56.268945
   C    64.066288   -48.665431   -55.823975
   C    30.506704   -55.146550   -86.716344
   C    28.700514   -53.980602   -87.222501
   C    29.328020   -53.614459   -87.164003
   C   -95.571606    59.119297    -6.735633
   C   -96.381831    59.408130    -4.701410
   C   -96.195516    58.729959    -4.892768
   C   -85.065564   -74.583570    35.824565
   C   -84.447714   -75.462541    37.754235
   C   -84.537474   -74.739602    37.730811
   C    34.395491    -9.184170    43.595273
   C    33.344717   -10.129419    45.292427
   C    33.616629    -9.461620    45.398990
   C    32.672397    81.610323    90.525348
   C    31.797213    80.063654    89.213929
   C    31.970840    79.865191    89.893424
   C   -33.790924    39.844452    82.453350
   C   -34.487946    38.904557    80.580196
   C   -34.991543    39.054509    81.085321
   C   -81.823798   -31.960256    27.915431
   C   -82.984462   -31.305406    26.154186
   C   -83.256985   -31.855403    26.547228
   C   -67.810367    72.062896    21.011999
   C   -67.749486    69.920375    20.479223
   C   -67.218873    70.344660    20.215255
   C   -54.539636    66.838138    81.484585
   C   -53.384785    68.709323    81.691799
   C   -53.439353    68.284321    82.281411
   C   -17.856515     7.830550   -22.025664
   C   -19.415207     9.385137   -21.847633
   C   -19.217619     9.186811   -22.520591
   A   -43.797815   -70.293852    35.918912
   A   -44.118784   -70.212740    37.183418
   A   -44.454545   -71.088184    35.897454
   A    -1.889357    -2.469631    61.184973
   A    -0.840941    -2.999867    60.612044
   A    -1.699157    -1.660096    60.575714
   A    57.617761     9.848314    96.590400
   A    57.237941    10.629911    97.566830
   A    57.071295     9.123988    97.079732
   A   -21.780911    30.230886    16.236055
   A   -21.089797    29.176964    15.889379
   A   -22.565308    29.759500    15.761465
   A   -71.125173    35.681011    22.962578
   A   -71.147967    36.898000    22.486138
   A   -70.138471    35.680577    22.664018
   A    -6.362257    20.682030   -95.631412
   A    -5.588321    19.929651   -96.368652
   A    -5.934232    21.466876   -96.144765
   A   -95.908849    60.212555    -3.220657
   A   -96.003788    60.241602    -4.524005
   A   -95.714875    59.208209    -3.348646
   A   -85.120899   -76.531535    38.965644
   A   -84.934191   -76.256035    37.701597
   A   -85.184151   -75.509510    39.084732
   A    84.556787     5.244146    19.163269
   A    83.570576     4.860374    18.396014
   A    84.881447     5.760592    18.332247
   A   -29.853069   -28.856314    81.999741
   A   -29.515147   -29.408089    83.135490
   A   -30.590210   -28.391049    82.550077
   A     6.340000    42.567545    13.038126
   A     5.697712    41.730592    13.809845
   A     5.849132    42.090839    12.267076
   A    31.717449   -10.639068    45.687012
   A    32.683700   -10.574913    44.809049
   A    32.060136    -9.717126    45.995730
   A   -34.594837    39.320896    78.883531
   A   -33.901944    39.328276    79.991871
   A   -35.410752    39.449601    79.500325
   A    68.471580   -31.178463    38.791966
   A    67.716420   -31.075373    37.730043
   A    68.142969   -32.155206    38.818556
   A    19.807965    67.876587   -94.145545
   A    18.855113    66.981926   -94.160657
   A    20.263948    67.246258   -93.469170
   A   -87.190945   -19.826762   -59.402727
   A   -86.938076   -18.605044   -59.012808
   A   -86.857739   -20.097282   -58.465438
   A    89.214263    67.958462   -87.644262
   A    87.918614    68.026599   -87.803087
   A    88.994750    67.873632   -86.640601
   A   -51.105483   -50.982962   -26.093685
   A   -51.463660   -52.028504   -25.395742
   A   -52.071876   -50.660610   -25.935908
   A   -70.437526    62.669896    25.695561
   A   -71.011110    63.432177    24.801971
   A   -71.208413    62.968303    26.311518
   A    76.577787    60.021843   -93.653638
   A    77.814335    60.433642   -93.753367
   A    76.644148    60.348358   -92.678086
   A   -47.337987   -85.412899   -38.690670
   A   -46.318402   -84.633421   -38.938527
   A   -46.815318   -86.116264   -39.233637
   A    68.759259   -74.810606    31.845547
   A    69.481951   -75.190190    32.866432
   A    68.281704   -74.201823    32.526755
   A   -67.515760    68.388964    21.293834
   A   -68.068425    69.573460    21.283581
   A   -66.720994    68.856452    20.832835
   A   -11.780646   -81.239321    96.372435
   A   -10.986493   -81.605047    97.344104
   A   -11.083557   -81.685147    95.757598
   A     3.056614    93.735821   -99.010054
   A     4.065691    93.077805   -98.502756
   A     3.779300    94.340083   -99.428756
   A   -44.897881    31.441811    44.456645
   A   -44.937597    32.739766    44.307283
   A   -45.913195    31.521006    44.616594
   A   -63.671018    63.638260   -28.226459
   A   -62.995484    63.695631   -27.108901
   A   -63.072082    62.826888   -28.440163
   A   -37.914000    -7.624094    67.688106
   A   -37.024527    -7.846575    68.619726
   A   -37.565442    -6.654296    67.714892
   A    42.283890   -89.302591   -16.372916
   A    42.262044   -90.217439   -15.439561
   A    43.156320   -89.761497   -16.674562
   A    19.467459    -3.201814    91.797181
   A    19.429221    -1.953872    91.410202
   A    19.782994    -2.816692    92.699864
   A   -75.976771     0.563123   -67.774632
   A   -76.632641    -0.493546   -67.372316
   A   -75.580645     0.566780   -66.822903
   A    37.789127   -96.413322    54.116758
   A    36.547807   -96.009846    54.186813
   A    37.808989   -95.901397    53.222188
   A   -59.388337   -59.903891   -74.790898
   A   -59.572573   -58.641147   -75.073934
   A   -59.634015   -60.066737   -75.778745
   A    66.993497   -80.659814   -92.666706
   A    66.905277   -81.497169   -93.666520
   A    67.376587   -80.006964   -93.366525
   A     2.544951    -2.847654   -26.775330
   A     2.133460    -3.605749   -27.757441
   A     3.376417    -2.692697   -27.364712
   A    34.787902   -70.548680    78.143096
   A    33.862811   -71.079204    78.898955
   A    34.490846   -69.655752    78.563995
   A   -89.132005    80.353745   -27.998399
   A   -90.148891    80.112692   -28.783516
   A   -89.139081    79.336918   -27.828896
   A    27.570573   -53.854638   -88.553218
   A    28.278036   -54.614870   -87.759418
   A    28.365094   -53.201294   -88.485411
   A   -83.870688   -29.885858    25.641421
   A   -82.807894   -30.391739    26.209865
   A   -84.367922   -30.677075    26.076684
   A    62.583651   -48.589533   -57.518746
   A    62.897693   -47.855165   -56.484021
   A    63.095226   -49.337801   -57.027722
   A    12.509660   -84.317828    44.421533
   A    11.240813   -84.136795    44.164959
   A    12.642227   -83.418123    43.936070
   A   -26.746550    68.116199   -85.349245
   A   -26.507701    68.664153   -86.511687
   A   -25.730981    68.209829   -85.199004
   A    95.276563   -97.232445   -15.160677
   A    95.637705   -96.611250   -16.252588
   A    94.649436   -97.766091   -15.780880
   A   -43.335578   -57.841195   -65.354312
   A   -42.457296   -58.080474   -64.416261
   A   -43.533519   -56.980628   -64.822370
   A     6.808693   -68.810731    88.490282
   A     5.737339   -69.028089    89.206893
   A     6.516540   -67.822549    88.519608
   A   -21.061610     9.508404   -21.266597
   A   -19.848568     9.054011   -21.091579
   A   -20.876825     9.353279   -22.268850
   A    90.953003   -19.769512    14.067045
   A    91.153307   -20.777435    14.874848
   A    91.981622   -19.724590    14.015632
   A   -73.935404   -31.271261   -42.392410
   A   -73.354202   -30.554061   -43.317830
   A   -74.558579   -30.457519   -42.281975
   A    40.017604   -44.205544     8.176573
   A    40.486284   -45.414183     8.344214
   A    39.177082   -44.563920     8.653866
   A   -70.724398   -22.390089    45.653019
   A   -70.225297   -23.508970    46.108627
   A   -71.160657   -22.984593    44.932629
   B   -95.815056    58.032862    -2.978484
   B   -96.289683    58.347754    -4.292604
   B   -95.888619    58.602851    -3.168219
   B   -36.594726    39.235137    79.784417
   B   -35.612584    38.886845    80.766980
   B   -36.002894    39.218468    79.658894
   B   -44.785532   -72.205356    35.484090
   B   -44.664102   -72.041741    36.901773
   B   -44.526452   -71.718193    35.732783
   B   -46.946829    31.165156    45.194061
   B   -46.587528    32.548376    45.288630
   B   -46.403558    31.370902    45.024285
   B   -10.446060   -81.726556    94.699118
   B    -9.691895   -81.687046    95.916087
   B   -10.700078   -81.599040    95.233452
   B    -1.674798    -0.440195    60.376356
   B    -0.446697    -1.156318    60.202359
   B    -1.604363    -1.012009    60.561738
   B   -75.234403   -29.702676   -41.573477
   B   -74.209737   -29.104224   -42.375506
   B   -74.809345   -30.030396   -41.853161
   B    56.905408     7.951347    97.434544
   B    56.946924     8.946717    98.463550
   B    57.088648     8.518471    97.329227
   B   -71.640062    63.284739    27.425988
   B   -71.808996    64.232512    26.365552
   B   -71.357227    63.229018    26.893825
   B    44.301339   -89.707030   -17.137661
   B    44.142377   -90.327892   -15.856803
   B    43.788069   -89.666270   -16.819555
   B    85.791954     6.184018    17.611010
   B    84.803831     5.349724    16.995457
   B    85.390303     5.866077    17.933327
   B     4.182433    95.452471   -99.787326
   B     4.993904    94.732590   -98.852112
   B     3.983980    94.958375   -99.499603
   B    38.188556   -95.787082    52.051139
   B    36.775225   -95.796188    52.282982
   B    37.948826   -95.945851    52.583699
   B   -23.588763    29.797302    15.068929
   B   -22.508207    28.984932    14.595864
   B   -23.033502    29.825792    15.308036
   B   -86.258369   -20.875875   -57.715074
   B   -85.812875   -19.514846   -57.736827
   B   -86.441895   -20.481810   -58.136180
   B   -90.914278     2.766024    62.654436
   B   -92.294799     2.667902    63.023045
   B   -91.328387     2.511522    62.293824
   B    30.602192    78.317013    90.051925
   B    31.732402    79.190095    89.943796
   B    30.633616    78.756031    89.636505
   B    32.292504    -8.894721    46.889123
   B    33.391016    -9.284868    46.057020
   B    32.260996    -9.366629    46.511487
   B    37.949796   -44.600212     8.798599
   B    38.614501   -45.841051     8.534355
   B    38.526054   -44.626237     8.615436
   B    93.575544   -98.339044   -15.997625
   B    93.947281   -97.285009   -16.893259
   B    94.030863   -97.958505   -15.878573
   B     5.821468    41.652372    11.111447
   B     5.548162    40.726391    12.169370
   B     5.925387    41.785020    11.692742
   B     6.408746   -66.711671    87.987793
   B     5.208448   -67.323948    88.473323
   B     6.387136   -67.292269    88.157313
   B   -31.739420   -27.948739    82.660419
   B   -31.322528   -28.932530    83.614198
   B   -31.233409   -28.273360    82.590614
   B   -44.323676   -56.126173   -64.405171
   B   -43.544797   -56.828840   -63.430006
   B   -44.004449   -56.621883   -64.541788
   B   -35.414676    43.847057    84.956521
   B   -36.061596    43.724681    83.684571
   B   -35.356949    43.354225    84.609992
   B    20.478233    -2.885423    93.719872
   B    20.627602    -1.718067    92.903595
   B    20.246116    -2.848460    93.162149
   B   -62.434831    62.136374   -29.243654
   B   -61.717011    62.667235   -28.123717
   B   -62.667481    62.562744   -28.882571
   B   -69.150803    35.100327    22.198919
   B   -69.600128    36.276684    21.516549
   B   -69.684894    35.359220    22.317326
   B   -75.170629     1.171823   -65.825754
   B   -76.236989     0.235799   -65.630633
   B   -75.478272     0.930566   -66.287760
   B   -85.245345   -31.547668    26.050343
   B   -83.895540   -31.984741    26.246124
   B   -84.770944   -31.181506    25.965680
   B    34.274625   -68.441323    78.480885
   B    33.187790   -69.271927    78.905417
   B    34.291819   -69.044693    78.436743
   B   -37.757590    -5.434984    67.645235
   B   -37.149363    -5.934253    68.841951
   B   -37.738471    -6.025454    67.776679
   B    20.953649    67.061429   -92.459890
   B    19.644261    66.481195   -92.472920
   B    20.538929    67.207431   -92.875810
   B   -71.537522   -23.172806    43.770284
   B   -70.606896   -24.114281    44.317001
   B   -71.241401   -23.071806    44.288367
   B    63.835575   -50.327869   -57.039808
   B    64.257230   -49.205009   -56.257037
   B    63.570346   -49.785530   -57.082480
   B    28.816461   -52.051862   -88.425658
   B    29.157786   -52.945146   -87.359412
   B    28.540380   -52.584965   -88.348983
   B   -51.688423    68.911139    83.196023
   B   -53.020569    68.606281    82.767317
   B   -51.874440    69.002485    82.627383
   B    93.031985   -19.077516    13.934832
   B    92.893041   -19.962685    15.052198
   B    92.503689   -19.334210    14.080811
   B    67.259243   -73.655856    32.956860
   B    67.982601   -74.496751    33.862944
   B    67.699827   -74.027408    32.772107
   B   -60.174929   -60.744709   -76.659803
   B   -60.588009   -59.378636   -76.539180
   B   -60.024441   -60.401716   -76.184400
   B   -84.972566   -74.483218    39.740821
   B   -84.443083   -74.530439    38.410875
   B   -84.953476   -74.994740    39.417898
   B   -88.989469    78.365728   -27.078627
   B   -90.259574    78.502772   -27.726231
   B   -89.152583    78.871820   -27.367702
   B     4.594239    -2.521124   -27.491086
   B     4.012416    -3.624703   -28.194602
   B     4.030978    -2.713871   -27.382069
   B   -24.662790    67.786064   -84.743058
   B   -24.715332    68.048895   -86.150004
   B   -25.183267    67.890646   -85.033687
   B   -46.783808   -87.061288   -40.030150
   B   -46.024897   -85.894718   -40.368537
   B   -46.847430   -86.536761   -39.734985
   B    89.253104    68.108699   -85.454644
   B    87.970531    68.522618   -85.939431
   B    89.116730    68.115911   -86.044262
   B    13.297537   -82.676959    43.194625
   B    11.942583   -82.947657    42.817586
   B    12.968827   -83.111566    43.457996
   B    76.370231    60.230064   -91.478306
   B    77.757570    60.269357   -91.831979
   B    76.559994    60.179284   -92.050765
   B   -53.094528   -50.082853   -26.321753
   B   -53.231745   -51.445046   -25.901110
   B   -52.616783   -50.442022   -26.226586
   B    68.154351   -79.100883   -93.686834
   B    68.218926   -80.316135   -94.442037
   B    67.876602   -79.608137   -93.508376
