450
mol output final
   C    64.933486   -73.637843   -92.888106
   C    65.904048   -75.294495   -91.796564
   C    66.249606   -74.652797   -91.804273
   C    11.899868   -27.666890   -43.072754
   C    10.111742   -26.422453   -43.435978
   C    10.627439   -26.146095   -43.001319
   C    -6.817459   -99.190772    12.375001
   C    -5.286730   -98.852792    10.819176
   C    -5.109260   -98.679534    11.504547
   C    28.110420   -74.296356    -4.316835
   C    28.808005   -76.194606    -3.429156
   C    28.651263   -75.650058    -2.970739
   C   -69.323675    25.682251   -87.451649
   C   -71.174379    24.512214   -87.741238
   C   -71.237917    25.238153   -87.726334
   C    53.845802    70.543457   -58.547084
   C    54.837413    70.316123   -60.507436
   C    55.245956    70.554613   -59.952944
   C    81.370579   -77.834238   -56.976467
   C    79.313666   -78.569000   -56.649072
   C    79.448181   -78.223307   -57.276486
   C    53.354439    30.296749   -40.965775
   C    53.383694    31.458996   -39.087936
   C    52.764174    31.114163   -39.256851
   C     9.327212    27.328631   -77.629993
   C     9.858288    27.961703   -75.581792
   C     9.583878    27.291346   -75.662830
   C    57.338321    -3.566409   -38.031667
   C    58.022956    -2.193176   -39.620206
   C    57.441644    -2.608001   -39.765961
   C   -20.170482   -64.053121   -61.213747
   C   -18.246017   -64.707894   -60.350232
   C   -18.218395   -64.261900   -60.926056
   C    44.640246   -79.529465    19.912529
   C    44.651172   -81.681286    20.410022
   C    44.655685   -81.210534    20.966457
   C    76.976430    45.378500    -3.799006
   C    75.060696    45.067896    -2.744757
   C    75.643599    45.226626    -2.336989
   C     9.967917   -14.640433   -83.040014
   C    11.297422   -13.177074   -84.024367
   C    10.802739   -12.916232   -83.556930
   C   -17.218111    -0.658358   -78.949364
   C   -19.126009     0.453756   -78.916463
   C   -18.699720     0.540488   -79.501272
   C    16.269695    26.034106    49.195268
   C    14.150488    26.193117    48.593910
   C    14.350460    26.537546    49.204342
   C   -23.361950   -40.763019   -20.436596
   C   -24.228738   -38.825745   -19.825368
   C   -24.212965   -38.973521   -20.538922
   C    73.421119    44.621515    99.184970
   C    71.986121    42.992454    99.591041
   C    71.789563    43.495432    99.101526
   C   -26.361141    10.609517   -14.325001
   C   -27.766359    11.241590   -15.907340
   C   -28.049145    11.081748   -15.254861
   C    28.902620    72.731261    39.255693
   C    30.624437    73.125017    40.581684
   C    29.964940    73.316186    40.826151
   C   -50.166698   -58.701551   -68.503896
   C   -48.093219   -59.436636   -68.699567
   C   -48.183277   -58.728575   -68.551965
   C   -77.185659    93.293735    26.421187
   C   -78.526936    92.946979    24.701103
   C   -78.210504    92.362433    25.000142
   C   -52.110203   -39.251884   -84.570704
   C   -50.168096   -38.274393   -84.958884
   C   -50.221521   -38.682388   -84.357276
   C    60.241210    47.907800   -44.238164
   C    60.956020    47.521963   -46.291972
   C    60.335740    47.197749   -46.088540
   C   -74.167662   -49.499100   -48.701206
   C   -73.089435   -49.450588   -50.628127
   C   -73.156261   -48.820637   -50.267652
   C   -46.941978    83.303915   -68.999993
   C   -46.209187    84.113486   -70.919776
   C   -46.592281    83.493885   -70.943861
   C    10.122264    31.520546   -61.646858
   C    11.561631    33.152601   -62.024444
   C    11.121046    32.963161   -62.573301
   C     8.505850    -9.539570    68.595604
   C     8.845497    -9.882292    66.440347
   C     9.428499    -9.725957    66.848899
   C    85.653551   -30.869678   -61.272464
   C    84.353069   -30.393475   -59.552020
   C    84.432643   -31.097035   -59.724985
   C   -60.027404    75.015700    97.710701
   C   -58.699298    76.115359    99.090860
   C   -58.573190    75.402767    99.003929
   C    15.081887   -99.455369   -82.848780
   C    15.236831   -97.954131   -81.236257
   C    15.222229   -98.655477   -81.038400
   C   -48.365826   -32.636228   -38.390717
   C   -50.536856   -32.559917   -38.789161
   C   -50.326773   -32.587985   -38.091791
   C   -10.347637    -4.371894   -63.055875
   C    -8.851835    -3.454451   -64.397078
   C    -8.601226    -3.866838   -63.850837
   C    10.538627   -31.487118    42.780345
   C     8.365534   -31.103630    42.687844
   C     8.809233   -30.543139    42.545617
   C   -61.054818    24.920892    63.828125
   C   -60.067805    24.952419    61.852584
   C   -59.853400    25.449872    62.340249
   C   -71.698505   -76.448464    73.009864
   C   -72.816019   -76.225138    74.901752
   C   -72.917650   -76.840950    74.525330
   C     2.078856   -82.221978   -29.815485
   C     2.619779   -82.372545   -27.679441
   C     2.960405   -82.821231   -28.141937
   C   -36.245681   -76.270281    68.995944
   C   -36.894280   -74.602449    67.701491
   C   -36.615026   -74.430088    68.352303
   C   -82.393408    18.771827   -67.293034
   C   -82.932665    20.913491   -67.272262
   C   -82.555959    20.670211   -67.846852
   C   -84.832204    92.492061   -67.995611
   C   -83.251871    91.005394   -68.408309
   C   -83.252162    91.612275   -68.811970
   C   -67.616665   -17.376924   -59.824030
   C   -66.419059   -17.083126   -61.656344
   C   -66.349161   -17.721306   -61.311253
   C   -58.359329    11.921565    49.252834
   C   -56.334399    11.094561    48.946770
   C   -56.474141    11.749205    48.658395
   C    94.212871    -8.271290    32.814840
   C    95.136365    -6.592628    31.716110
   C    95.521490    -7.209290    31.767619
   C   -33.155068    18.542967    93.352330
   C   -32.905496    20.717404    93.056540
   C   -32.836940    20.291130    92.469312
   C    72.417751     0.169806     7.370862
   C    71.932320     1.095310     5.425161
   C    72.496300     1.372317     5.794539
   C    -5.074872   -65.806108   -86.417413
   C    -5.965725   -63.799235   -86.179102
   C    -6.424329   -64.363044   -86.234308
   C   -93.493832   -54.347726    26.991253
   C   -93.390267   -53.955289    29.162248
   C   -93.433953   -53.377009    28.720739
   C   -72.518915   -34.780790    40.244846
   C   -72.024127   -35.075496    42.377048
   C   -72.509462   -34.556038    42.216240
   C   -96.469903   -14.516335     4.674751
   C   -94.871881   -15.646132     3.651113
   C   -94.674779   -15.047456     4.017152
   C   -12.424735   -45.673057   -68.845085
   C   -14.118475   -46.460427   -70.023748
   C   -14.264195   -46.217251   -69.352274
   A    11.843176    34.786944   -61.464893
   A    11.540311    33.547644   -61.180317
   A    11.311665    34.621398   -62.332539
   A     8.726309   -11.208969    65.304934
   A     8.209651   -10.551356    66.309515
   A     9.632520   -10.979709    65.739605
   A    61.192665    48.425087   -47.772446
   A    61.308229    48.366168   -46.471774
   A    60.326037    47.885762   -47.628212
   A    28.237687   -77.842811    -3.282205
   A    28.397572   -76.780531    -4.026901
   A    28.079507   -77.170352    -2.517028
   A   -72.460300   -76.126745    76.612663
   A   -72.163352   -75.772651    75.389956
   A   -72.723240   -77.029427    76.189881
   A   -20.837878     0.090830   -78.951448
   A   -19.648058    -0.188978   -78.488188
   A   -20.341949     0.331126   -79.822672
   A   -57.493030    77.379990    98.995647
   A   -58.659326    76.921374    98.624164
   A   -57.205881    76.389907    98.995487
   A    58.130342    -0.465934   -39.882006
   A    58.290275    -1.483782   -39.077654
   A    57.321864    -0.994594   -40.242007
   A   -71.601982   -50.086125   -51.296718
   A   -72.668896   -50.280328   -50.566957
   A   -71.632416   -49.126101   -50.922356
   A   -36.424593   -73.890397    66.173154
   A   -36.647605   -74.967193    66.879800
   A   -36.076512   -73.492442    67.058134
   A   -28.106857    12.685207   -16.836572
   A   -27.220873    11.870193   -16.327300
   A   -28.653279    12.475134   -15.988037
   A    55.265242    69.017396   -61.600005
   A    54.383377    69.556159   -60.799616
   A    55.959690    69.379703   -60.929785
   A   -81.860745    90.331586   -67.587217
   A   -83.108951    90.715901   -67.533762
   A   -81.743109    91.115545   -68.246224
   A     7.003679   -31.596572    41.705094
   A     8.099543   -31.925419    42.337166
   A     7.493912   -30.712334    41.503812
   A   -25.623687   -38.253317   -18.936615
   A   -24.637362   -39.105350   -19.035488
   A   -25.651925   -38.306514   -19.965737
   A   -51.692311   -31.427950   -39.457752
   A   -50.516951   -31.995217   -39.530634
   A   -51.555641   -31.486016   -38.437621
   A   -71.862959    23.456450   -88.955593
   A   -70.818453    23.825691   -88.261878
   A   -72.115529    24.455708   -88.935312
   A    16.394537   -96.765109   -80.680035
   A    15.776216   -97.336600   -81.679861
   A    16.363382   -97.699588   -80.245874
   A   -72.228748   -36.315655    43.595069
   A   -71.921946   -36.002020    42.363777
   A   -72.904847   -35.540408    43.527246
   A    84.523903   -29.715766   -57.947350
   A    84.835473   -29.669996   -59.215972
   A    84.518897   -30.738138   -58.079445
   A   -84.387284    21.883978   -67.347613
   A   -83.769190    20.836829   -66.868017
   A   -83.843910    21.698699   -68.203846
   A    65.594673   -76.265185   -90.373368
   A    65.135714   -75.700675   -91.459305
   A    66.208004   -75.438823   -90.312802
   A     3.399245   -81.379296   -26.467282
   A     2.554792   -81.468593   -27.461012
   A     3.943100   -82.084887   -26.986013
   A    73.499928    45.852466    -2.635693
   A    74.494935    45.448106    -3.380696
   A    74.226367    46.045118    -1.930079
   A    71.894033    41.259815    99.360995
   A    72.599667    42.301613    99.714988
   A    71.468785    41.896762    98.670936
   A    66.473601   -88.182533    28.645774
   A    66.629718   -88.016323    27.358694
   A    67.434471   -88.555175    28.621569
   A   -24.738176   -22.609408   -34.744420
   A   -24.514982   -23.632263   -33.961778
   A   -24.626318   -23.288685   -35.511746
   A   -48.882170   -38.372041   -86.142226
   A   -50.164150   -38.349130   -85.888111
   A   -48.808340   -38.889859   -85.253895
   A   -17.357122   -64.496463   -58.857382
   A   -18.499054   -64.719446   -59.453069
   A   -17.155548   -63.894197   -59.669393
   A    94.848105    -5.694553    30.241728
   A    94.364305    -6.250339    31.321364
   A    95.515841    -6.479931    30.247076
   A    -4.312509   -99.815515     9.729452
   A    -5.475180   -99.592020    10.283367
   A    -3.924981   -99.505267    10.632939
   A    -8.363764    -3.581589   -66.073104
   A    -9.329834    -3.519414   -65.194800
   A    -7.860104    -4.110943   -65.345897
   A     9.364056   -25.590438   -44.782141
   A     9.962727   -26.658851   -44.325345
   A     9.985147   -25.078590   -44.137955
   A   -14.998813   -46.029834   -71.473931
   A   -13.850122   -46.156258   -70.863111
   A   -15.355868   -45.747798   -70.548898
   A   -59.005854    23.921459    60.918334
   A   -60.049228    24.033325    61.697712
   A   -58.615268    24.689749    61.483923
   A    54.192338    31.394678   -37.537003
   A    54.264961    31.286458   -38.837614
   A    53.251593    30.987809   -37.647347
   A   -66.703561   -16.880972   -63.371461
   A   -67.039311   -16.585780   -62.143167
   A   -66.482130   -17.812708   -62.989947
   A    31.810159    72.198060    41.475133
   A    31.129771    72.370103    40.372387
   A    30.958810    72.539546    41.945570
   A    78.497892   -80.109558   -56.492118
   A    79.523379   -79.355556   -56.194744
   A    78.525131   -79.628955   -57.403709
   A   -46.487639    85.520216   -71.923278
   A   -46.308086    85.020582   -70.728832
   A   -46.987190    84.639464   -72.116783
   A   -94.107020   -17.215023     3.781519
   A   -95.204782   -16.505521     3.791433
   A   -93.679599   -16.391953     4.231614
   A    43.577085   -83.053773    20.248601
   A    44.103258   -81.981293    19.718032
   A    43.606813   -82.520874    21.130561
   A   -94.382716   -54.230821    30.577368
   A   -93.892065   -54.684740    29.454072
   A   -94.418183   -53.323584    30.089126
   A    13.224156    26.897376    47.286483
   A    14.275330    26.222009    47.670524
   A    13.345817    27.413051    48.170789
   A   -54.938720    10.690855    49.922753
   A   -56.236908    10.670968    49.771469
   A   -54.988603    11.601911    49.442955
   A    13.000633   -12.774017   -84.031540
   A    12.072618   -13.694419   -84.046460
   A    12.348926   -12.256317   -83.423278
   A   -33.891707    22.159969    93.155700
   A   -33.543457    21.009907    93.670145
   A   -33.745830    21.694280    92.247640
   A   -80.231214    93.104303    24.334871
   A   -79.159074    93.605732    24.889542
   A   -79.847275    92.194343    24.630307
   A    76.275215    51.855416   -40.578359
   A    75.708594    52.871460   -39.982398
   A    76.526808    51.553977   -39.625178
   A    11.306091    28.365678   -74.685070
   A    10.614243    28.466124   -75.789530
   A    10.915154    27.413126   -74.634761
   B    10.470344    26.460954   -73.983603
   B     9.627865    27.004799   -75.006247
   B    10.591149    26.987424   -74.256612
   B   -35.940239   -72.540138    67.834692
   B   -36.585121   -73.713020    68.344412
   B   -36.127117   -72.989258    67.474601
   B   -92.722294   -15.627824     4.399449
   B   -93.958453   -15.044051     3.972299
   B   -93.186547   -15.961641     4.201122
   B    10.195074   -24.149413   -43.349883
   B    10.398674   -25.480325   -42.861456
   B    10.007147   -24.638043   -43.653566
   B   -24.239680   -23.579173   -36.649561
   B   -23.733864   -24.366864   -35.565573
   B   -24.309625   -23.416406   -36.070844
   B   -46.360714   -58.443210   -67.607507
   B   -47.515304   -58.484947   -68.453981
   B   -46.636360   -58.961782   -67.753798
   B    59.521704    47.017671   -47.985930
   B    60.104932    46.873446   -46.685783
   B    59.994794    47.348813   -47.804740
   B   -73.451774   -78.026986    76.138775
   B   -73.340322   -77.236485    74.949647
   B   -73.198571   -77.477271    76.137964
   B    -7.998661   -63.498207   -85.200524
   B    -7.071819   -64.071519   -86.129833
   B    -7.421723   -63.318605   -85.234926
   B   -29.733570    12.277817   -15.420117
   B   -28.744502    11.246625   -15.321489
   B   -29.234573    12.273967   -15.762587
   B    30.405642    73.180270    42.846666
   B    30.086183    73.539326    41.497458
   B    30.722859    72.975927    42.373468
   B    74.609560    46.077210    -0.755078
   B    75.378918    45.291858    -1.673036
   B    74.410662    45.940669    -1.310140
   B   -81.227565    91.610831   -69.254887
   B   -82.658094    91.556219   -69.210825
   B   -81.526592    91.286684   -68.840388
   B   -94.311836   -52.091843    30.089257
   B   -93.489948   -52.819496    29.169279
   B   -94.244859   -52.692557    30.120155
   B    12.876296    27.993466    49.156266
   B    13.760574    26.894364    49.403990
   B    13.047840    27.611136    48.719579
   B    52.062634    30.910278   -37.317407
   B    52.342662    31.224296   -38.686463
   B    52.616150    31.064423   -37.507559
   B   -33.377360    21.718988    91.067761
   B   -32.758562    20.754073    91.926462
   B   -33.440133    21.733677    91.669544
   B    84.052878   -31.856775   -57.834548
   B    84.079281   -31.444825   -59.206021
   B    84.168717   -31.285951   -57.998988
   B    43.767769   -82.466820    22.355170
   B    44.601944   -81.627901    21.547888
   B    43.806277   -82.530335    21.754519
   B    96.647204    -6.937359    30.048900
   B    96.102874    -7.085435    31.365379
   B    96.150214    -6.642525    30.228823
   B    11.838792   -11.197238   -83.040381
   B    10.952126   -12.215257   -83.518711
   B    12.037216   -11.686766   -83.335826
   B    70.492689    42.291374    98.022851
   B    71.164913    43.253035    98.844229
   B    70.903625    42.132060    98.437640
   B    -6.816230    -4.408385   -64.753992
   B    -7.892731    -3.892118   -63.962821
   B    -7.304471    -4.149702   -65.000978
   B   -16.367460   -63.431558   -60.502086
   B   -17.518992   -64.120290   -61.003047
   B   -16.724964   -63.765990   -60.146215
   B   -73.509340   -34.586988    44.031305
   B   -72.733159   -34.322558    42.857014
   B   -73.113163   -34.986501    43.808300
   B   -65.783400   -18.832382   -62.966728
   B   -65.920753   -18.105193   -61.740486
   B   -66.021505   -18.276387   -62.944941
   B   -16.249675   -45.731803   -69.694879
   B   -14.978734   -46.262598   -69.302064
   B   -15.815058   -45.861394   -70.095643
   B    56.590436    -1.347878   -41.174047
   B    57.223670    -2.381524   -40.411205
   B    57.036289    -1.233381   -40.781105
   B   -54.520012    12.439517    48.663638
   B   -55.842097    11.960404    48.391824
   B   -54.754082    11.957697    48.945346
   B   -20.210100     1.032008   -80.832561
   B   -19.090933     0.949524   -79.942618
   B   -20.254412     0.794153   -80.277800
   B     4.677524   -83.079130   -27.010491
   B     3.443150   -83.159479   -27.732435
   B     4.237302   -82.668862   -26.945805
   B    57.064040    69.876784   -60.681155
   B    55.908108    70.590511   -60.227554
   B    56.504614    69.737646   -60.865497
   B    68.295543   -89.349100    29.017464
   B    68.016338   -89.333392    27.612780
   B    67.815704   -89.061978    28.785917
   B    11.142018    34.793609   -63.544999
   B    11.267464    33.442288   -63.087251
   B    11.330876    34.657187   -62.986411
   B   -51.998981   -31.657340   -37.296308
   B   -50.938749   -32.520637   -37.722882
   B   -51.819675   -31.689098   -37.873490
   B    28.194713   -76.834787    -1.332706
   B    28.725936   -75.943503    -2.320002
   B    28.261300   -76.996118    -1.912220
   B   -72.961425    25.355076   -88.871336
   B   -71.929564    25.355415   -87.878057
   B   -72.589206    24.884656   -88.790980
   B   -47.294915    83.717419   -72.880743
   B   -46.663820    83.360727   -71.645499
   B   -47.029692    84.126904   -72.522584
   B   -79.656045    90.988336    24.436723
   B   -78.500984    91.808312    24.648409
   B   -79.682440    91.592942    24.429444
   B    -3.061249   -98.916125    11.292768
   B    -4.418152   -98.490400    11.462803
   B    -3.505139   -99.093355    10.921487
   B    67.293711   -74.917450   -90.033685
   B    66.814698   -74.754312   -91.373562
   B    66.828174   -75.236546   -90.252207
   B    77.953044   -79.137112   -58.383149
   B    78.834495   -78.284132   -57.643685
   B    78.172976   -79.290982   -57.840699
   B   -48.209767   -39.156739   -84.205572
   B   -49.556273   -38.683028   -84.087850
   B   -48.509035   -38.912654   -84.671576
   B   -83.221748    22.095954   -69.195612
   B   -82.524267    21.236590   -68.286573
   B   -83.438688    21.960495   -68.647080
   B     7.489350   -29.485936    41.347534
   B     8.364707   -30.014540    42.350363
   B     7.454477   -30.059293    41.538176
   B   -71.472191   -47.907815   -51.058750
   B   -72.771760   -48.355930   -50.656690
   B   -71.634895   -48.490354   -51.080528
   B   -57.942168    25.721716    61.586282
   B   -59.306284    25.784684    62.018210
   B   -58.341803    25.284656    61.461507
   B   -25.820065   -37.777805   -21.070586
   B   -24.562544   -38.422844   -20.838410
   B   -25.644786   -37.956700   -20.519612
   B    73.520304     2.116046     4.153364
   B    72.772930     1.861792     5.348405
   B    73.055405     1.728818     4.168280
   B    77.315687    51.029052   -38.831062
   B    76.898121    52.369689   -38.548803
   B    77.019796    51.368020   -39.235843
