450
mol output final
   C    28.725559    -0.142807   -41.444346
   C    26.749588    -0.309416   -42.416833
   C    26.842655    -0.665891   -41.787937
   C    37.949208    -5.608426   -22.772502
   C    39.786709    -6.721264   -23.285470
   C    39.515161    -6.816837   -22.615862
   C    19.849478    39.880352    59.314088
   C    21.149909    41.515760    58.598356
   C    20.565532    41.702561    58.991873
   C    38.887544   -10.399528    69.898554
   C    38.127331    -9.291384    71.651279
   C    37.689794    -9.797025    71.361217
   C    57.387682    38.383683    29.137519
   C    59.460403    38.066058    28.444055
   C    58.963200    38.239341    27.940062
   C   -12.741394    84.660797   -95.775876
   C   -12.601628    82.491052   -96.163982
   C   -12.973893    82.892407   -96.645209
   C    64.254851    83.892079   -85.112700
   C    64.831602    85.137462   -86.843114
   C    65.001546    84.429225   -86.870801
   C    65.377702     7.744997    33.792202
   C    63.480164     6.615466    33.753947
   C    64.091023     6.245919    33.607204
   C   -39.595450   -79.189049    65.363024
   C   -40.936061   -80.942005    65.274359
   C   -40.219493   -81.071667    65.305414
   C   -45.654028   -20.667781    13.295914
   C   -45.163481   -18.971504    14.622550
   C   -44.801707   -19.016466    13.991404
   C   -22.067536   -81.531527    -6.735813
   C   -23.646626   -80.004471    -6.506627
   C   -23.178670   -79.919711    -7.058967
   C   -99.453391   -76.066555    68.372034
   C   -99.585883   -74.681039    70.086893
   C   -99.883251   -75.341490    70.168280
   C     2.665310   -55.033475   -46.839293
   C     3.721400   -56.050447   -45.187508
   C     3.600748   -56.436628   -45.793771
   C    85.715341   -78.588048    91.447479
   C    87.731589   -77.723794    91.191032
   C    87.684995   -78.448566    91.252528
   C     9.011105   -52.166164    39.803325
   C     7.928239   -50.789514    38.457892
   C     7.585563   -50.999504    39.065942
   C    53.884952    28.737181   -61.399408
   C    53.408174    26.664780   -61.995888
   C    53.936126    26.756297   -61.501785
   C    82.641486    42.975945   -27.324056
   C    81.929098    40.910847   -26.998748
   C    82.606860    41.067740   -26.781331
   C   -85.928338   -95.760654   -79.750667
   C   -84.418864   -97.236830   -79.102329
   C   -84.176459   -96.581736   -79.310507
   C    -4.143283   -75.661547    76.991070
   C    -2.173010   -76.659503    76.983196
   C    -2.604142   -76.777626    77.558885
   C   -88.521254   -82.656756    88.272948
   C   -87.368363   -81.952611    90.020224
   C   -87.178851   -81.688997    89.367660
   C   -79.046329   -34.371805    51.289092
   C   -78.892716   -32.299030    50.542126
   C   -79.458769   -32.456816    50.973328
   C   -93.042776   -55.389490     3.737319
   C   -90.835856   -55.466879     3.775599
   C   -91.148647   -55.164341     3.190895
   C    34.717052   -18.112865   -90.299329
   C    35.527765   -16.138463   -90.867160
   C    35.439346   -16.628146   -91.399737
   C     7.220258   -92.769491     0.005778
   C     7.861574   -94.695672    -0.863988
   C     8.337606   -94.348933    -0.434556
   C    37.236435    93.937228   -47.440149
   C    38.351321    94.907701   -49.081234
   C    38.165987    95.324025   -48.512401
   C   -41.870747    -1.412607    42.011987
   C   -42.225530    -2.217561    39.986122
   C   -41.986318    -2.683715    40.492802
   C    -3.875700    23.017016    56.197050
   C    -5.085760    24.862330    56.104733
   C    -4.412285    24.891189    55.827523
   C   -87.813687   -61.635800    18.007056
   C   -88.239785   -63.739572    17.486923
   C   -87.799936   -63.619347    18.055541
   C   -82.321546   -68.470877    13.002468
   C   -84.295282   -68.077113    13.912010
   C   -83.881493   -67.499248    13.750467
   C   -34.312395    15.882396    47.667725
   C   -33.377795    17.640003    48.624436
   C   -33.190233    16.983128    48.878567
   C    37.637974   -51.505062   -21.309952
   C    37.385449   -53.470000   -20.333632
   C    37.255208   -52.877732   -19.929277
   C     8.518919    51.040770   -98.357772
   C     9.757816    52.740199   -97.683215
   C     9.953326    52.075136   -97.458016
   C    66.139360   -85.992189     5.967989
   C    64.585731   -85.186930     7.315484
   C    64.569549   -85.902572     7.178220
   C    53.375217   -81.397990   -86.227934
   C    53.292521   -83.593772   -86.005093
   C    53.050341   -83.313105   -86.632645
   C    18.635269   -30.962149    45.062179
   C    20.517858   -29.903781    45.524419
   C    20.519549   -30.629900    45.587629
   C    -3.268350    25.316722    24.812328
   C    -4.902918    26.253170    25.965240
   C    -4.982048    26.220107    25.241436
   C    38.590684    25.882473    73.243580
   C    39.750271    25.353136    75.047218
   C    39.151885    24.960734    74.908647
   C    39.934949   -97.548644   -72.896888
   C    41.931220   -96.866915   -73.551181
   C    41.364974   -96.433578   -73.702279
   C     1.802782    44.442193    75.754880
   C     1.086794    42.412187    76.249239
   C     1.126479    42.588868    75.543225
   C    40.188853    23.950282   -50.112967
   C    40.765829    22.018166   -49.211868
   C    40.504849    22.003892   -49.892259
   C    -2.916304     4.357115    84.351293
   C    -4.994036     4.830825    84.931451
   C    -4.485388     5.332938    85.074303
   C    58.790732    93.527392    -5.493183
   C    57.205469    93.979640    -6.963001
   C    57.500461    93.313510    -6.985313
   C     6.764750    76.597025   -95.180558
   C     4.987431    77.895436   -94.998301
   C     5.557810    78.049349   -94.571421
   C   -17.200859    67.174147   -73.533712
   C   -18.649892    67.478293   -75.172537
   C   -18.833135    67.731978   -74.514272
   C    66.637018    69.351900   -76.163976
   C    68.814025    69.127970   -75.866570
   C    68.411783    68.520262   -75.854805
   C     1.624021    79.199326   -40.754435
   C     3.046746    80.606837   -41.688629
   C     3.112276    79.902097   -41.862680
   C   -83.005176    24.335255   -62.597777
   C   -81.271912    22.966796   -62.630491
   C   -81.235913    23.539555   -62.181161
   C   -42.939372   -12.409457    73.172869
   C   -44.388484   -13.866961    73.981392
   C   -44.240323   -13.282253    74.390552
   C    16.317163   -49.407831   -98.652635
   C    18.065826   -50.302925   -97.643210
   C    17.413971   -50.598351   -97.505171
   C    54.232267    34.223495    68.373881
   C    55.057770    32.576726    67.155419
   C    54.336811    32.583237    67.262294
   A   -29.791135    94.499326    74.428871
   A   -28.611994    94.138181    73.995540
   A   -29.503642    94.049625    75.310821
   A   -27.311173    60.366662    14.128089
   A   -26.488011    61.344813    13.855694
   A   -27.390192    60.812902    15.054018
   A   -61.543187    96.684388    37.593899
   A   -60.776277    96.031849    38.427334
   A   -60.768773    96.557900    36.925317
   A   -53.316022    10.009007    83.731915
   A   -52.888930    11.207534    84.031413
   A   -53.840630    10.482912    82.981636
   A    59.158300    28.782068    65.359578
   A    59.981416    27.874644    64.903907
   A    59.719495    29.440960    64.799542
   A   -20.488219    91.874228    74.198540
   A   -20.809028    93.125751    74.000185
   A   -20.285326    91.861324    73.187903
   A   -57.676190    74.639953    94.144982
   A   -57.980172    75.903711    94.006839
   A   -58.389139    74.483234    93.417067
   A    60.559966    91.369261   -80.627002
   A    60.574130    90.538943   -81.636430
   A    60.940126    92.050902   -81.300472
   A    79.976120    95.388132    83.299054
   A    79.457908    96.533775    82.941935
   A    79.030118    95.172947    83.647615
   A   -22.995003   -76.221377   -61.617533
   A   -23.943448   -75.969275   -62.480939
   A   -22.579765   -75.340008   -61.954409
   A   -63.474133    47.979168    51.321048
   A   -64.763038    48.011050    51.536176
   A   -63.516445    47.047297    51.759846
   A    68.422428   -29.179910   -65.545875
   A    67.488355   -30.023567   -65.898474
   A    69.067919   -29.851033   -65.988203
   A    84.145929    20.534800    75.344193
   A    84.120925    19.255931    75.075038
   A    83.745373    20.647896    74.401069
   A    -5.253720   -85.364775    72.272428
   A    -5.522305   -86.598127    72.611958
   A    -6.274653   -85.227862    72.313309
   A    65.653764   -93.322715   -64.142066
   A    64.410372   -93.093085   -63.810674
   A    65.313875   -94.258617   -64.409052
   A    12.933167    51.073132   -90.519190
   A    13.818348    51.047854   -89.557737
   A    13.703464    51.444976   -91.094597
   A   -42.177886   -77.138283    67.707346
   A   -41.256129   -77.823325    68.331570
   A   -42.790718   -77.429820    68.483337
   A    83.289980   -21.354418    94.734675
   A    83.145443   -21.272251    96.031182
   A    82.264918   -21.462710    94.719221
   A   -83.694449    23.201367    85.439860
   A   -83.099124    24.361897    85.525486
   A   -84.267978    23.540261    86.226583
   A   -29.985501    53.650431   -16.857067
   A   -28.822413    53.651896   -16.260579
   A   -29.583879    52.899834   -17.438464
   A    72.487780    10.516374    81.930986
   A    71.521228     9.646127    81.800520
   A    72.175644    10.863825    81.011982
   A   -35.807006   -48.641352   -99.094612
   A   -35.817064   -49.023289   -97.844573
   A   -34.974612   -49.243938   -99.176651
   A    59.222708   -59.545147    42.306310
   A    59.776150   -58.416603    41.947612
   A    59.999353   -59.605771    42.981489
   A   -65.078259   -27.898238   -23.741685
   A   -64.190906   -28.245117   -24.636590
   A   -65.737222   -28.443860   -24.316823
   A    45.953122    99.243557   -52.855233
   A    45.452674    98.123262   -52.404607
   A    45.266588    99.694408   -52.232238
   A    40.902702   -31.244829   -72.828939
   A    41.480254   -32.152811   -73.570947
   A    41.832654   -30.800380   -72.809642
   A    92.298396     5.408498    46.502778
   A    92.515899     6.683285    46.312559
   A    91.413869     5.717135    46.932982
   A   -53.439187    68.570964   -96.421921
   A   -52.830075    69.715354   -96.589040
   A   -52.994055    68.307980   -97.313782
   A   -58.069910    -6.023901   -29.559999
   A   -58.238229    -7.261548   -29.174677
   A   -58.253051    -6.389900   -30.506162
   A    57.435978   -22.268512    35.049812
   A    58.288819   -23.001313    35.716325
   A    57.925735   -21.469914    35.480043
   A     3.936369   -16.471162   -78.251549
   A     4.519876   -16.520498   -77.082935
   A     4.740998   -17.028641   -78.574825
   A    83.785351   -62.072310    -5.211032
   A    83.785662   -63.329715    -5.568116
   A    83.192024   -62.389131    -4.429811
   A    85.527709    60.153710    64.068607
   A    84.478418    59.543830    64.554003
   A    84.881621    60.940375    63.905981
   A   -87.012321    88.729972   -17.243852
   A   -87.505828    87.866278   -18.091825
   A   -87.430984    88.123455   -16.523036
   A   -21.980035   -17.467159    54.862688
   A   -22.637816   -16.707853    55.698961
   A   -21.468927   -17.787918    55.698512
   A    50.791553   -27.972154   -88.860499
   A    50.718860   -28.961419   -89.711761
   A    51.615000   -27.681659   -89.408464
   A   -61.536993    74.811048    23.730953
   A   -62.815649    74.895634    23.988749
   A   -61.730871    73.813233    23.559208
   A    64.407186    98.074017   -55.264217
   A    63.937486    96.942512   -54.808528
   A    63.728173    98.509121   -54.622077
   A   -10.044708    20.979054    16.688923
   A   -10.190609    20.170815    15.672046
   A   -10.930560    20.571151    17.022989
   A    61.285084   -27.278587    63.087803
   A    61.445281   -26.080447    62.590440
   A    61.573573   -26.847780    63.978813
   A    72.873576   -34.100840   -77.650775
   A    71.676036   -34.614944   -77.549927
   A    72.772268   -34.294395   -78.658243
   A   -50.295698   -68.006324    60.163443
   A   -49.083291   -67.518633    60.191760
   A   -50.522297   -67.236066    60.810031
   A   -66.516246    26.417994    19.116759
   A   -66.903924    25.693528    20.133336
   A   -67.517631    26.448378    18.873809
   A    54.624208   -48.470911   -94.862754
   A    55.886915   -48.224226   -95.093602
   A    54.962076   -48.897882   -93.987391
   A    -6.020300    63.127969    46.018570
   A    -5.937245    61.840613    46.229260
   A    -6.280197    63.181617    47.014710
   A   -97.921974    62.935204    31.674314
   A   -98.045712    64.153799    31.217927
   A   -98.292452    63.324840    32.553887
   A    17.046865   -58.083400    89.334802
   A    18.060686   -58.835118    88.994713
   A    17.438702   -58.144053    90.286381
   A   -63.692629   -37.507003    53.503020
   A   -63.625166   -38.401407    52.552197
   A   -63.322089   -38.255184    54.107705
   A   -21.781392   -25.935240    78.185429
   A   -21.767200   -27.156540    77.719812
   A   -20.840096   -26.157855    78.541972
   A    74.350467    87.378148   -96.636509
   A    73.821463    86.586219   -95.741201
   A    73.392776    87.743623   -96.745932
   B    44.961704    57.769494   -91.203175
   B    45.816888    58.827735   -90.755821
   B    44.785486    58.348485   -91.199328
   B    24.989960    95.437463    39.048018
   B    25.929438    94.734612    39.869431
   B    25.075082    94.839880    39.003888
   B   -67.113858    50.717367   -24.577292
   B   -66.615816    49.865453   -25.615336
   B   -67.461900    50.525989   -25.033954
   B   -64.396263    50.273206    63.529534
   B   -65.068515    49.722962    64.668238
   B   -64.576451    49.695839    63.551409
   B    38.824430    13.195622    77.688578
   B    38.581583    12.860280    79.059676
   B    39.068809    12.707963    77.950812
   B   -76.120852    76.112251    87.958706
   B   -76.744578    74.859619    88.264024
   B   -76.392830    75.774552    87.536466
   B   -55.548466    -3.017963   -89.503469
   B   -56.433836    -2.180525   -88.751036
   B   -55.373059    -2.487191   -89.271495
   B   -15.279145    90.459016    35.537657
   B   -14.560505    90.993312    36.655433
   B   -15.296636    91.046252    35.683076
   B   -63.711331    61.020404    94.754374
   B   -63.617516    62.068590    93.782858
   B   -64.076062    61.048574    94.272216
   B    -3.207789    74.288610   -32.145259
   B    -4.014222    73.141301   -31.854250
   B    -3.551907    74.019971   -32.564442
   B     6.573514    51.570747    35.963469
   B     6.991741    52.889099    36.335453
   B     6.427183    51.818713    36.495821
   B    43.145619   -40.904737    54.758296
   B    42.256416   -41.871526    55.329238
   B    43.108120   -40.997401    55.355210
   B   -49.233243    22.848902    -9.750918
   B   -49.022852    23.204316   -11.122324
   B   -49.090509    23.411845    -9.921273
   B    57.145978    85.142154    96.995584
   B    56.280136    84.032279    96.731322
   B    56.717167    85.160456    96.568870
   B    11.955199   -14.110726    16.300472
   B    12.066417   -12.780790    16.820315
   B    12.248194   -13.671118    16.005181
   B    94.821858    18.921091    97.489694
   B    94.684475    20.298554    97.122190
   B    94.402425    19.281521    97.735590
   B    95.433266   -75.967493    27.225664
   B    95.130944   -74.669772    27.750888
   B    95.743653   -75.723496    27.684383
   B    15.851888    20.260761   -93.658051
   B    15.386765    20.136680   -92.309124
   B    15.528386    19.785245   -93.469558
   B    98.077638   -49.635655   -93.463406
   B    97.940230   -49.429272   -92.052781
   B    97.766392   -49.170518   -93.233034
   B    66.449319   -47.240285    91.581509
   B    66.383505   -46.214206    90.584429
   B    66.062002   -47.264488    91.117076
   B   -89.958721    47.600180    19.882337
   B   -89.575097    46.230882    20.053197
   B   -89.947777    47.207166    19.422207
   B   -72.010214    85.120584    29.387299
   B   -70.772642    84.982780    30.094946
   B   -71.842131    85.504978    29.823520
   B    30.349068    -2.238288    67.822381
   B    31.656870    -2.721659    67.494746
   B    30.797362    -2.259976    68.228412
   B   -37.282401    -2.361911    -0.256527
   B   -37.479890    -1.345106     0.732636
   B   -37.729461    -2.388691     0.150559
   B   -85.655987    79.161165   -86.945586
   B   -85.161580    78.503523   -88.117937
   B   -85.521426    79.462056   -87.453185
   B    -1.205905    13.020882    44.581868
   B    -0.966562    12.398850    43.314142
   B    -0.857112    13.274730    44.157365
   B    18.470459   -85.922577    76.657628
   B    17.459656   -86.816318    76.177168
   B    18.194039   -86.322570    77.018039
   B    83.726097   -16.986879    46.095471
   B    84.292969   -16.102123    47.068714
   B    83.914458   -17.179561    46.637405
   B    43.542685    64.716254    39.430313
   B    44.819904    64.272222    39.902418
   B    43.709331    64.767445    40.009888
   B   -25.276667    93.391117    -9.458800
   B   -26.277509    92.450900    -9.051805
   B   -25.139601    92.876333    -9.171556
   B    -9.271236   -43.493500    72.326351
   B    -9.893398   -42.301168    71.833808
   B    -8.976819   -43.094097    71.979804
   B    17.567220   -89.958560   -38.143006
   B    17.199035   -91.204090   -38.746688
   B    17.966084   -90.404492   -38.234391
   B     6.926877    30.605307    36.530604
   B     7.166854    29.287182    37.036862
   B     7.459974    30.325991    36.466664
   B   -60.416929    77.455536    92.224503
   B   -60.664669    78.747886    91.658998
   B   -60.330214    77.574071    91.637367
   B    44.953870    89.790282   -41.985470
   B    45.673918    90.798948   -42.703427
   B    44.683043    90.166167   -42.374908
   B   -52.399460   -87.559712    24.774424
   B   -52.411182   -87.962676    23.400080
   B   -52.707754   -87.256737    24.350797
   B   -72.939397    19.634895    -0.098634
   B   -72.839114    20.941636    -0.676311
   B   -72.424175    19.952417    -0.093695
   B   -67.193480   -48.172135   -25.554843
   B   -67.027548   -49.198284   -24.569539
   B   -67.663456   -48.432651   -25.276361
   B    36.957269    38.746777    42.899144
   B    36.575340    38.393438    41.564745
   B    36.943157    39.150748    42.448692
   B    64.031349   -84.341466   -91.801964
   B    64.158748   -84.094551   -90.396923
   B    64.029320   -83.782475   -91.569964
   B    85.052369    19.717287   -35.711603
   B    84.738901    20.267892   -36.996092
   B    84.660974    19.453267   -36.090287
   B    67.417007   -55.336155    51.569899
   B    68.432098   -56.303328    51.277489
   B    67.441748   -55.629843    51.041283
   B   -42.149483    17.698857   -61.766765
   B   -40.771349    17.330070   -61.639948
   B   -41.796560    17.912524   -61.323943
   B    -2.063755    49.537578   -13.742153
   B    -2.606561    48.213949   -13.673553
   B    -2.615675    49.425039   -13.520752
   B   -36.973127   -44.212842    77.436538
   B   -37.278740   -43.199607    76.471501
   B   -36.574274   -44.033248    77.018255
   B    71.950225    35.733679     5.046943
   B    72.268508    37.110175     5.282089
   B    71.765949    36.028561     5.542307
   B   -12.291090     1.436501    36.960073
   B   -11.906165     0.097540    37.292272
   B   -12.013692     1.071806    36.564665
   B    36.888327   -86.518659    39.416974
   B    35.780617   -87.103595    40.111355
   B    36.889361   -86.601746    40.016468
   B    53.139194   -20.611986     0.561037
   B    53.565412   -19.345958     0.044463
   B    53.723676   -20.464179     0.507823
   B    17.600377   -54.667327    45.761221
   B    18.625008   -55.206438    46.604327
   B    17.553759   -55.212901    46.019047
