450
mol output final
   C    22.533174    48.187821    10.058139
   C    22.407256    48.249133    12.262303
   C    22.466838    47.593269    11.949992
   C    13.646010   -92.314635     9.906313
   C    14.863423   -93.997547     9.155535
   C    14.979158   -93.343012     8.856477
   C    17.242762    91.894182    76.277146
   C    18.756420    90.547429    75.397914
   C    18.720728    90.579065    76.125218
   C    20.304833    82.766564   -27.806558
   C    20.896699    84.704357   -26.927578
   C    20.752045    84.159244   -26.465871
   C    72.913768   -60.952853   -95.942692
   C    72.238924   -63.005981   -95.487496
   C    72.263251   -62.811068   -96.189396
   C   -85.505094    79.361457   -23.920085
   C   -85.805337    81.306456   -22.917696
   C   -86.174716    80.735634   -22.655079
   C    40.788297   -69.861026    55.010285
   C    42.070491   -70.277751    53.260923
   C    41.810439   -69.600340    53.329730
   C   -96.546540    89.039856    13.703526
   C   -96.235567    90.214706    15.547699
   C   -96.617821    89.596918    15.606576
   C   -30.463169    72.929776    94.495026
   C   -31.819917    71.847262    93.129247
   C   -31.682091    72.546599    92.977000
   C    79.460689   -18.425912   -42.452288
   C    79.380327   -20.466201   -43.294141
   C    79.891779   -20.332620   -42.792325
   C    34.432015    13.345963   -93.571243
   C    32.840939    14.860400   -93.341222
   C    33.441092    14.943324   -92.936022
   C   -15.288959    94.067559   -15.166199
   C   -17.352560    93.366249   -14.808895
   C   -16.831446    92.858781   -14.855412
   C   -57.104241   -68.693600    22.180851
   C   -57.763192   -67.623242    20.364792
   C   -57.555608   -68.317427    20.285657
   C    38.556814    38.042900   -55.158472
   C    37.668255    39.722031   -54.032000
   C    37.209516    39.236015   -54.322849
   C   -89.817195    21.152276   -47.013309
   C   -91.050590    19.321425   -47.081647
   C   -90.897835    19.644286   -47.717000
   C   -58.955840    66.442374    29.159669
   C   -56.988107    65.451023    29.007335
   C   -57.577574    65.044354    28.871703
   C    77.021126   -66.662706   -66.314891
   C    78.027215   -68.009562   -64.882509
   C    77.651306   -68.320033   -65.424309
   C   -24.642750    75.815789    81.063723
   C   -26.841921    75.616229    81.021584
   C   -26.451206    75.049940    80.780949
   C    -6.527229   -70.666261    -9.776914
   C    -8.664121   -70.972505    -9.310160
   C    -8.372399   -70.329400    -9.129712
   C    87.802344   -96.826542    30.781124
   C    87.983220   -98.964032    31.306834
   C    88.165706   -98.771159    30.628052
   C    85.379256   -11.802539    82.644172
   C    84.879155   -12.505061    84.677474
   C    84.542549   -11.903583    84.440477
   C   -19.332657   -15.344005    74.727494
   C   -21.020567   -16.404793    73.776894
   C   -20.458845   -16.222045    73.349907
   C   -84.009439   -20.062807   -85.648878
   C   -84.463497   -22.207067   -85.376969
   C   -83.863789   -21.949617   -85.052444
   C   -59.319802    82.479908   -87.925432
   C   -61.161167    83.086262   -88.983573
   C   -60.612813    82.829480   -89.389304
   C    43.504422    84.454999   -93.649300
   C    43.918497    82.497913   -92.713185
   C    43.523155    82.974367   -92.328551
   C    44.845869    18.611063    73.305754
   C    46.408763    17.062472    73.498570
   C    46.628378    17.740382    73.345422
   C    98.515585   -17.195829    56.133230
   C    96.582523   -18.196085    56.508348
   C    96.603314   -17.471569    56.585101
   C   -38.813333   -85.455715   -30.538569
   C   -39.716001   -83.538489   -29.916167
   C   -39.340172   -83.542750   -30.540652
   C   -52.879299    77.128246   -80.275056
   C   -50.799867    77.592224   -80.856983
   C   -51.304903    78.100193   -80.991711
   C   -83.290975    73.785766   -32.227032
   C   -82.305216    72.653748   -30.606918
   C   -82.016759    72.600285   -31.274137
   C    81.414317   -37.510886    93.426287
   C    79.607009   -36.570149    92.573876
   C    79.858489   -36.299992    93.202382
   C   -36.879234    27.054811   -82.787448
   C   -38.042115    28.794714   -83.493420
   C   -38.210263    28.525482   -82.837305
   C    66.990176    98.201961    38.742174
   C    68.847830    99.372942    38.978548
   C    68.330018    99.463883    39.483371
   C    14.375712    44.439135   -51.627650
   C    14.051818    45.844115   -49.954606
   C    13.661696    45.228446   -49.953084
   C   -47.932385    40.228564   -51.800147
   C   -49.840637    41.232159   -52.279026
   C   -49.874118    40.631128   -51.868067
   C    18.508820   -80.216430   -88.724633
   C    18.379140   -82.248762   -87.869787
   C    18.750876   -82.172010   -88.492015
   C    87.068763    27.277370    22.189249
   C    85.347773    28.434131    21.428954
   C    85.258184    28.078489    22.058826
   C   -76.134149    -6.542802   -37.401849
   C   -74.861318    -8.204158   -36.696335
   C   -75.453429    -8.379202   -37.083648
   C   -25.237043   -91.661709   -53.791470
   C   -23.559372   -90.582299   -54.739230
   C   -24.180180   -90.631840   -55.117898
   C    37.020834    36.775679    94.573417
   C    38.956240    35.734140    94.355815
   C    38.914671    36.416469    94.102940
   C   -25.653720    95.185944   -87.029141
   C   -26.187815    96.613778   -85.431021
   C   -25.743909    96.853219   -85.957198
   C    56.467679   -80.200124    39.169247
   C    54.732046   -78.974618    38.566200
   C    54.782731   -79.157151    39.270018
   C    10.537121   -78.344198    53.129987
   C    10.199586   -79.340610    55.071941
   C    10.455834   -78.658449    55.087444
   C   -30.164101   -89.748052   -89.265991
   C   -29.532629   -87.631662   -89.256457
   C   -29.777273   -87.909305   -88.628516
   C     3.584765   -86.503715   -42.411285
   C     4.641529   -88.425090   -42.147621
   C     4.943256   -87.937823   -42.597929
   C   -96.280118   -36.527619    50.453203
   C   -95.897487   -34.386318    50.070613
   C   -95.771264   -34.850477    49.523009
   C    92.429611    30.198036    49.508067
   C    93.396714    31.843373    48.396524
   C    92.799058    32.006647    48.780446
   C    29.726801   -10.215756     4.402509
   C    30.789078   -12.151440     4.351034
   C    30.631075   -11.840847     3.710867
   C    34.191560   -76.812043   -67.251325
   C    33.031377   -77.738186   -68.886620
   C    33.603424   -78.110783   -68.631315
   C   -21.926002    84.372505    52.925160
   C   -24.016289    84.575494    52.241458
   C   -23.790738    83.908697    52.430549
   A    53.973435    44.440971    97.122166
   A    54.947558    45.080594    96.530103
   A    53.903696    45.281831    97.714457
   A   -14.722167    99.291297    79.350586
   A   -14.533910    98.237442    78.600572
   A   -13.701271    99.413541    79.276105
   A   -71.417491   -32.280330    43.160129
   A   -71.793533   -32.632871    41.958929
   A   -71.303864   -33.292028    43.322226
   A   -56.449239    17.258452   -16.759656
   A   -57.723199    17.132126   -17.023554
   A   -56.757781    17.389787   -15.784837
   A    58.439830    64.248446    71.126498
   A    57.573252    64.798657    70.317249
   A    58.759081    65.214241    71.293948
   A    62.759619    53.405121   -17.435406
   A    62.773082    54.708641   -17.339343
   A    62.991896    53.420177   -16.431146
   A    -2.700390   -66.983431   -43.132066
   A    -2.597670   -68.208689   -42.688484
   A    -3.153816   -67.415234   -43.951010
   A    -3.795338   -24.042079   -93.483513
   A    -2.547311   -24.422747   -93.405439
   A    -3.852059   -24.703070   -94.272558
   A    18.876464   -75.852368   -19.964832
   A    20.015592   -75.276566   -19.683027
   A    19.397122   -76.733998   -19.844984
   A    31.556594   -91.617216    17.984429
   A    32.814313   -91.444258    18.295561
   A    31.436633   -91.849402    18.981634
   A   -50.971822    16.698037    41.850184
   A   -52.065530    17.164665    41.307380
   A   -51.469177    16.827362    42.743845
   A   -21.341393     4.591545   -83.405982
   A   -20.703042     5.165146   -84.391915
   A   -20.866643     5.289076   -82.813714
   A   -79.033125    51.915498   -93.536233
   A   -80.089467    52.239608   -92.837901
   A   -79.445881    52.513565   -94.267442
   A   -20.914324    59.613426   -13.236305
   A   -19.797365    59.814910   -12.587938
   A   -20.758949    60.559877   -13.614203
   A   -36.347460   -85.923172    36.273611
   A   -36.944958   -86.393211    35.210299
   A   -36.425490   -86.886847    36.631326
   A   -73.782411    74.001888    85.348064
   A   -74.750304    74.369818    86.145800
   A   -74.519685    73.943495    84.629916
   A   -75.536744    12.323763    28.696324
   A   -76.779163    11.918944    28.729360
   A   -75.920748    13.171616    28.253149
   A   -73.358860   -42.405128    25.515109
   A   -74.255273   -41.540492    25.118344
   A   -74.047060   -43.114838    25.222856
   A    58.642821    29.162666   -26.695264
   A    58.266575    27.912961   -26.622801
   A    58.664095    29.120570   -25.665461
   A    66.390806    70.116705    34.900008
   A    67.622625    69.771357    34.631806
   A    66.133292    69.320263    34.298273
   A   -24.607133   -19.865702    28.892232
   A   -24.369975   -21.147139    28.993470
   A   -24.896728   -20.088494    27.928273
   A    55.675466    72.354898    53.178825
   A    55.622151    71.188151    53.765708
   A    55.725024    72.732339    54.136845
   A   -66.644539    18.206845   -22.458848
   A   -67.836235    18.709680   -22.270188
   A   -67.075976    17.314797   -22.174540
   A    20.056710   -71.166859    69.132000
   A    18.759956   -71.245302    69.276396
   A    19.837382   -70.743318    68.218093
   A     3.023628    53.079813    68.894676
   A     1.905792    53.145641    69.568978
   A     2.606369    53.817473    68.307758
   A   -38.331848   -65.797444    65.349889
   A   -39.608540   -65.628799    65.125854
   A   -38.240762   -65.764336    64.323572
   A   -55.632340   -50.649409    79.491708
   A   -55.750317   -49.996605    80.617986
   A   -54.643008   -50.754079    79.761866
   A     7.321852    83.870552    60.671084
   A     7.320477    82.656365    60.187014
   A     7.367600    84.165672    59.684408
   A   -12.835051   -14.194079   -64.273501
   A   -12.129349   -13.185971   -63.832731
   A   -12.473806   -14.690713   -63.445507
   A    93.535176   -27.329111    98.121544
   A    93.641174   -26.602413    97.040225
   A    92.907128   -26.581472    98.452167
   A    44.437609   -51.759188    91.339245
   A    45.617067   -51.203102    91.429921
   A    44.132247   -50.999191    91.965246
   A   -63.060093   -65.932603    92.830609
   A   -63.650542   -64.891298    92.305607
   A   -62.291601   -65.277627    93.038321
   A    -2.159327   -15.933875   -62.511103
   A    -1.294722   -14.953776   -62.532032
   A    -2.695468   -15.353404   -63.173164
   A    21.469554    31.829727   -74.490999
   A    21.416801    30.588185   -74.085582
   A    22.142521    31.477510   -75.187976
   A   -11.402166   -90.419103   -66.070420
   A   -12.400592   -90.973085   -66.706678
   A   -11.417024   -91.272133   -65.491768
   A   -84.777611    78.168018    -9.889938
   A   -85.873488    78.866182   -10.032046
   A   -84.295689    79.044344   -10.139983
   A    20.081682    62.509764   -63.473077
   A    20.098971    61.787357   -62.383856
   A    21.053202    62.746250   -63.222194
   A    30.921859    90.786147    49.347164
   A    32.195130    90.756015    49.053147
   A    30.778651    90.715439    48.328729
   A   -69.483870   -84.753322     0.915066
   A   -69.497072   -86.047355     0.731010
   A   -69.562057   -84.698661    -0.111393
   A   -95.037058   -35.251767   -43.834307
   A   -94.452841   -34.468356   -42.966245
   A   -94.859094   -34.489274   -44.504869
   A   -63.600810    71.266126    51.462270
   A   -62.814940    70.933676    52.452452
   A   -63.718362    70.249932    51.334792
   A    66.210010    13.042913    22.372818
   A    66.868327    13.540136    23.386702
   A    66.278140    13.993565    21.979960
   A    19.229312    -5.396253    11.052272
   A    20.490325    -5.720243    11.168249
   A    19.048315    -6.381320    11.296407
   A   -16.566237    10.797065    81.939836
   A   -17.078579    11.927758    82.349241
   A   -17.086928    10.981712    81.069488
   A   -23.422318    42.442024   -95.107475
   A   -23.772471    43.471948   -95.832199
   A   -23.485785    41.914559   -95.990917
   A   -44.579449   -24.794631   -92.190453
   A   -44.815044   -23.509160   -92.215615
   A   -45.543886   -24.871673   -91.834580
   A   -68.223456   -67.028128   -31.411083
   A   -68.912498   -65.933468   -31.599534
   A   -68.885446   -67.450851   -32.078760
   A    41.517949   -12.848209    52.655431
   A    40.580389   -13.747241    52.801362
   A    41.985641   -13.342904    53.429549
   A    91.980667   -30.322190   -23.047102
   A    92.205010   -31.389465   -23.767636
   A    90.994874   -30.622469   -23.074722
   A    48.900214   -97.619450   -88.239805
   A    47.876780   -96.889251   -88.597529
   A    48.830889   -97.114385   -87.343801
   B    81.132244    36.904329   -36.758622
   B    81.560938    35.722343   -37.444530
   B    81.289220    36.908116   -37.343124
   B    59.071392   -36.422733   -41.420567
   B    57.968824   -36.799357   -40.587599
   B    58.668982   -36.843202   -41.586611
   B    42.404071    17.091970    75.474945
   B    43.306222    16.110943    75.999395
   B    42.986510    17.213910    75.585369
   B    66.061429    59.070237    90.597871
   B    65.037347    59.835873    89.952583
   B    66.184083    59.475503    90.165420
   B   -96.706548    56.197643   -74.085496
   B   -96.708616    56.762708   -75.401564
   B   -97.049969    55.976681   -74.532191
   B   -62.070235    78.385480   -35.554769
   B   -60.722158    78.748149   -35.234614
   B   -61.937520    78.856752   -35.198976
   B   -15.166013     0.392222   -12.914771
   B   -16.124424     1.125067   -13.686605
   B   -15.434919     0.158207   -13.403878
   B   -56.749739    35.139250   -86.269205
   B   -57.271440    34.097020   -85.436785
   B   -56.495111    34.591028   -86.238931
   B   -43.017885   -78.737208   -59.248242
   B   -43.496822   -79.682171   -60.212090
   B   -42.680750   -78.922084   -59.715639
   B    98.170477    57.118332   -29.421999
   B    98.726995    55.804253   -29.300246
   B    97.909879    56.632021   -29.670775
   B   -26.463404    16.194298    44.245789
   B   -27.532709    15.304810    43.904126
   B   -26.972451    16.386654    43.980896
   B   -44.575460   -21.996628    31.253177
   B   -43.181597   -22.267253    31.065441
   B   -44.149469   -21.575246    31.338425
   B    85.528369   -26.844557   -15.344223
   B    85.741652   -26.013553   -14.197365
   B    85.908504   -26.998386   -14.899102
   B     4.420166    87.243235     0.847812
   B     5.236557    88.188449     0.146802
   B     4.533258    87.196574     0.255079
   B    51.500370    53.829328    -9.841233
   B    50.858729    54.878285   -10.575620
   B    51.794856    54.327510   -10.018410
   B   -40.578102   -84.055352    60.993691
   B   -41.386498   -85.181690    60.634251
   B   -40.592988   -84.561954    61.324496
   B   -56.166182   -23.606766   -83.677059
   B   -56.978864   -23.721103   -82.503255
   B   -55.981287   -23.903198   -83.182852
   B   -77.841431    92.891020    95.261315
   B   -78.169618    94.096356    94.560747
   B   -78.365912    92.962376    94.967842
   B   -86.737237   -78.933460   -70.978154
   B   -86.023090   -80.116076   -70.600328
   B   -86.826103   -79.466387   -71.250900
   B   -90.660533   -77.388231    39.722908
   B   -89.893443   -76.924256    38.605931
   B   -90.915021   -77.242682    39.193427
   B   -37.610588    29.599849   -62.029678
   B   -38.158953    28.622500   -62.921543
   B   -37.698791    29.711642   -62.617914
   B    46.683152    87.500942     4.183364
   B    47.660345    87.534786     5.229924
   B    46.841712    87.006562     4.494404
   B    55.457209    36.737133   -22.729170
   B    56.265559    37.882479   -23.022582
   B    55.237805    37.223826   -23.014284
   B    -2.507592     9.464649    21.209439
   B    -1.507623     9.510017    22.233813
   B    -2.617101     9.285212    21.776985
   B   -10.748809   -67.271909    17.017558
   B   -10.602806   -67.700057    18.376496
   B   -10.636457   -66.884521    17.468785
   B   -67.785210    25.024988   -50.708212
   B   -68.316028    24.431332   -51.898651
   B   -67.695486    25.263996   -51.256959
   B    18.444122   -31.275125    81.558717
   B    19.556393   -32.176269    81.512571
   B    18.433079   -31.817139    81.827786
   B    80.210953    47.048610   -44.799401
   B    80.665055    45.990878   -43.947150
   B    80.673384    47.118273   -44.415210
   B    35.434249    93.607064    80.874865
   B    34.980740    94.691741    81.692876
   B    35.794959    94.066987    81.031892
   B    -9.254701    23.125923   -96.184189
   B    -9.257887    22.090815   -95.194300
   B    -9.534300    22.596151   -96.270590
   B   -24.597537   -74.013749    96.041822
   B   -25.280582   -74.796290    97.027934
   B   -24.303241   -74.319100    96.473619
   B    22.799128    29.209122   -48.098748
   B    23.985827    29.701760   -47.465982
   B    23.261709    28.847527   -47.951893
   B    -4.865116   -18.864232   -17.004961
   B    -4.481484   -17.665664   -16.321150
   B    -4.452369   -18.861975   -16.562318
   B    48.732869   -63.104937   -40.537854
   B    49.796523   -63.905781   -40.010004
   B    48.993676   -63.548040   -40.857132
   B   -71.881141    57.013545   -54.510586
   B   -70.635734    57.178175   -55.198480
   B   -71.733975    56.684790   -54.996961
   B    31.694504    -4.426868    39.886186
   B    31.480826    -4.046121    41.250265
   B    31.556191    -3.859802    40.046199
   B    15.853649   -60.727507   -31.602194
   B    16.904234   -60.582756   -32.564824
   B    16.153725   -61.202214   -31.827819
   B   -90.041527   -47.017183     0.458139
   B   -89.473098   -47.421971    -0.792611
   B   -89.559307   -46.741837     0.217417
   B   -52.404143    34.783189   -46.955151
   B   -52.853140    35.671433   -45.925217
   B   -52.177477    34.769348   -46.394144
   B   -85.654127   -76.223853    45.283611
   B   -85.695183   -75.069512    46.130458
   B   -85.938332   -76.224238    45.817957
   B   -66.953872    87.080037    79.350693
   B   -66.188956    87.442214    78.195241
   B   -66.863566    86.698585    78.889567
   B   -57.552280    14.327113    80.414341
   B   -56.666755    15.381487    80.808651
   B   -57.733004    14.789011    80.761165
   B    50.559786   -71.445182    58.746807
   B    51.793796   -71.083875    59.377691
   B    50.927821   -71.855415    58.996923
   B    43.653804    79.687131    87.470599
   B    42.450815    79.578762    86.700917
   B    43.615151    79.886459    86.900447
   B    58.058178    95.368360    29.214910
   B    57.774457    96.614664    29.861105
   B    58.276049    95.506128    29.762496
   B    89.584588    38.965220    57.348108
   B    90.828118    39.253225    57.997742
   B    90.062874    38.596323    57.309955
   B   -48.983871    89.946066    75.261163
   B   -49.593905    88.654121    75.361547
   B   -48.999863    89.558572    74.796522
   B    20.536940    58.369687    90.801421
   B    20.043232    58.363456    92.145873
   B    20.903326    58.414108    91.281094
   B    53.938248   -12.223038   -12.034611
   B    53.666867   -13.549927   -11.568718
   B    53.460279   -12.352607   -11.686680
   B   -98.358486   -56.305966   -96.695791
   B   -99.276032   -55.216287   -96.844281
   B   -98.912938   -56.314217   -96.453277
